162			
			
H	18.104373	10.401761	2.369083
H	15.723386	14.788904	2.998967
H	18.222862	14.695479	2.815662
H	19.391609	12.53275	2.576687
H	12.527993	4.212183	2.905962
H	16.957029	6.57417	2.604585
H	16.844763	4.074362	2.696337
H	14.667275	2.908347	2.814978
H	6.363155	9.757266	2.388214
H	8.732031	5.35711	2.972512
H	6.232341	5.459763	2.796706
H	5.070068	7.629339	2.589743
H	11.921506	15.945094	2.920939
H	7.504387	13.564116	2.595464
H	7.606341	16.067155	2.672836
H	9.781073	17.239443	2.805498
C	15.158601	10.40057	2.504868
C	14.12512	12.351805	2.80396
C	16.190995	11.418522	2.53513
C	15.525435	12.647498	2.750762
C	17.593391	11.353726	2.49784
C	16.240749	13.848137	2.822221
C	18.303086	12.548239	2.612965
C	17.638784	13.77992	2.752133
C	12.54747	7.130026	2.764944
C	14.501576	8.177866	2.555203
C	13.5614	6.106163	2.728354
C	14.794848	6.772197	2.610055
C	13.489556	4.710452	2.800319
C	15.998517	6.057406	2.577722
C	14.684568	3.994891	2.761864
C	15.923931	4.655049	2.666489
C	9.307027	9.749219	2.509953
C	10.337373	7.795889	2.791581
C	8.272466	8.733226	2.536627
C	8.936036	7.50081	2.740277
C	6.871324	8.802721	2.508651
C	8.217295	6.30071	2.803211
C	6.15875	7.609611	2.617216
C	6.819033	6.37416	2.740556
C	11.915141	13.021115	2.7903
C	9.965566	11.970728	2.575298
C	10.898362	14.044258	2.753516
C	9.667415	13.375531	2.630581
C	10.963018	15.440743	2.815164
C	8.460624	14.084946	2.582506
C	9.766203	16.152496	2.761569
C	8.52855	15.488808	2.658654
N	13.204998	13.291637	2.865853
N	15.441647	9.103614	2.376948
N	11.258047	6.85734	2.844182
N	9.024472	11.047488	2.393733
N	13.918216	10.973349	2.660016
N	13.142926	8.392626	2.667018
N	10.546202	9.174504	2.657936
N	11.32322	11.757364	2.687684
Co	12.232819	10.07487	2.601853
Ag	0.078311	-0.00018	0.111687
Ag	4.010821	0.0018	0.112528
Ag	8.233767	-0.013405	0.127468
Ag	12.270562	-0.00083	0.107232
Ag	16.303764	0.003024	0.126522
Ag	-0.025832	2.892989	0.099057
Ag	4.096898	2.910402	0.098431
Ag	8.182627	2.848397	0.104728
Ag	12.275975	2.881747	0.129275
Ag	16.372845	2.842628	0.100584
Ag	-0.040543	5.799086	0.103551
Ag	4.087981	5.811868	0.115549
Ag	8.241241	5.706863	0.1516
Ag	12.219208	5.764587	0.055544
Ag	16.385815	5.772826	0.045502
Ag	-0.210425	8.687901	0.215089
Ag	4.113042	8.694211	0.119727
Ag	8.191363	8.665864	-0.057556
Ag	12.206797	8.716705	0.053252
Ag	16.724025	8.647887	0.349903
Ag	-0.018998	11.554203	0.119541
Ag	4.29715	11.559628	0.217933
Ag	7.799543	11.566767	0.346971
Ag	12.317601	11.536691	0.04403
Ag	16.349813	11.563119	-0.053557
Ag	0.007881	14.435567	0.112891
Ag	4.127803	14.44886	0.102582
Ag	8.147553	14.456278	0.052899
Ag	12.339412	14.477995	0.08041
Ag	16.273409	14.521204	0.166384
Ag	-0.005907	17.336818	0.097622
Ag	4.11827	17.354354	0.100949
Ag	8.165231	17.390294	0.099651
Ag	12.268705	17.356871	0.123566
Ag	16.357053	17.382014	0.103502
Ag	2.045	1.44603	-1.44603
Ag	6.135	1.44603	-1.44603
Ag	10.225	1.44603	-1.44603
Ag	14.315	1.44603	-1.44603
Ag	18.405	1.44603	-1.44603
Ag	2.045	4.3381	-1.44603
Ag	6.135	4.3381	-1.44603
Ag	10.225	4.3381	-1.44603
Ag	14.315	4.3381	-1.44603
Ag	18.405	4.3381	-1.44603
Ag	2.045	7.23017	-1.44603
Ag	6.135	7.23017	-1.44603
Ag	10.225	7.23017	-1.44603
Ag	14.315	7.23017	-1.44603
Ag	18.405	7.23017	-1.44603
Ag	2.045	10.12223	-1.44603
Ag	6.135	10.12223	-1.44603
Ag	10.225	10.12223	-1.44603
Ag	14.315	10.12223	-1.44603
Ag	18.405	10.12223	-1.44603
Ag	2.045	13.0143	-1.44603
Ag	6.135	13.0143	-1.44603
Ag	10.225	13.0143	-1.44603
Ag	14.315	13.0143	-1.44603
Ag	18.405	13.0143	-1.44603
Ag	2.045	15.90637	-1.44603
Ag	6.135	15.90637	-1.44603
Ag	10.225	15.90637	-1.44603
Ag	14.315	15.90637	-1.44603
Ag	18.405	15.90637	-1.44603
Ag	2.045	18.79844	-1.44603
Ag	6.135	18.79844	-1.44603
Ag	10.225	18.79844	-1.44603
Ag	14.315	18.79844	-1.44603
Ag	18.405	18.79844	-1.44603
Ag	0	0	-2.89207
Ag	4.09	0	-2.89207
Ag	8.18	0	-2.89207
Ag	12.27	0	-2.89207
Ag	16.36	0	-2.89207
Ag	0	2.89207	-2.89207
Ag	4.09	2.89207	-2.89207
Ag	8.18	2.89207	-2.89207
Ag	12.27	2.89207	-2.89207
Ag	16.36	2.89207	-2.89207
Ag	0	5.78413	-2.89207
Ag	4.09	5.78413	-2.89207
Ag	8.18	5.78413	-2.89207
Ag	12.27	5.78413	-2.89207
Ag	16.36	5.78413	-2.89207
Ag	0	8.6762	-2.89207
Ag	4.09	8.6762	-2.89207
Ag	8.18	8.6762	-2.89207
Ag	12.27	8.6762	-2.89207
Ag	16.36	8.6762	-2.89207
Ag	0	11.56827	-2.89207
Ag	4.09	11.56827	-2.89207
Ag	8.18	11.56827	-2.89207
Ag	12.27	11.56827	-2.89207
Ag	16.36	11.56827	-2.89207
Ag	0	14.46033	-2.89207
Ag	4.09	14.46033	-2.89207
Ag	8.18	14.46033	-2.89207
Ag	12.27	14.46033	-2.89207
Ag	16.36	14.46033	-2.89207
Ag	0	17.3524	-2.89207
Ag	4.09	17.3524	-2.89207
Ag	8.18	17.3524	-2.89207
Ag	12.27	17.3524	-2.89207
Ag	16.36	17.3524	-2.89207
