38
 
 O		 0.000000 	 -0.000000 	 5.686805
 C		 0.000000 	 1.231495 	 5.048630
 C		 0.000000 	 1.223922 	 3.571101
 C		 0.000000 	 -0.000000 	 2.859116
 C		 -0.000000 	 -1.223922 	 3.571101
 C		 -0.000000 	 -1.231495 	 5.048630
 C		 0.000000 	 2.423596 	 2.880224
 C		 0.000000 	 2.432007 	 1.481339
 C		 0.000000 	 1.251217 	 0.735256
 C		 0.000000 	 -0.000000 	 1.430367
 C		 -0.000000 	 -2.423596 	 2.880224
 C		 -0.000000 	 -2.432007 	 1.481339
 C		 -0.000000 	 -1.251217 	 0.735256
 C		 -0.000000 	 -1.251217 	 -0.735256
 C		 0.000000 	 -0.000000 	 -1.430367
 C		 0.000000 	 1.251217 	 -0.735256
 C		 -0.000000 	 -2.432007 	 -1.481339
 C		 -0.000000 	 -2.423596 	 -2.880224
 C		 -0.000000 	 -1.223922 	 -3.571101
 C		 0.000000 	 -0.000000 	 -2.859116
 C		 0.000000 	 2.432007 	 -1.481339
 C		 0.000000 	 2.423596 	 -2.880224
 C		 0.000000 	 1.223922 	 -3.571101
 C		 0.000000 	 1.231495 	 -5.048630
 O		 0.000000 	 -0.000000 	 -5.686805
 C		 -0.000000 	 -1.231495 	 -5.048630
 O		 0.000000 	 -2.224701 	 -5.731039
 O		 0.000000 	 2.224701 	 5.731039
 O		 0.000000 	 2.224701 	 -5.731039
 O		 -0.000000 	 -2.224701 	 5.731039
 H		 0.000000 	 -3.393594 	 -0.982663
 H		 0.000000 	 3.393594 	 0.982663
 H		 0.000000 	 3.393594 	 -0.982663
 H		 -0.000000 	 -3.393594 	 0.982663
 H		 0.000000 	 -3.352379 	 -3.440792
 H		 0.000000 	 3.352379 	 3.440792
 H		 0.000000 	 3.352379 	 -3.440792
 H		 -0.000000 	 -3.352379 	 3.440792
