28

   C      6.563900      1.395130      0.164690
   C      8.695980      2.623409      0.165100
   C     10.833640      3.857450      0.164970
   C      6.560970     -1.066599      0.166470
   C      8.695980      0.158480      0.164060
   C     10.829169      1.397049      0.165550
   C     12.968750      2.625220      0.165800
   C      8.695930     -2.292180      0.163980
   N     10.807169     -1.066990      0.164920
   N     12.974199      0.184370      0.164640
   C     15.090930      1.400250      0.165710
   C     10.828989     -3.531110      0.165480
   N     12.973929     -2.318029      0.165010
   C     15.096920     -1.066618      0.164670
   C     17.225480      0.167560      0.165690
   C      5.852528      0.164320      0.165690
   C      7.986678      1.394150      0.164390
   C     10.123490      2.619730      0.165530
   C     12.253349      3.857520      0.164640
   C      7.984720     -1.066780      0.164840
   C     10.121069      0.159610      0.164950
   C     14.385870      2.628979      0.165990
   C     10.121069     -2.293499      0.164690
   C     14.379720      0.165910      0.164420
   C     16.516058      1.396819      0.165140
   C     12.255029     -3.525760      0.165280
   C     14.379519     -2.299090      0.164660
   C     16.509049     -1.066629      0.165460
