48
#comment
Na 12.0056007000 12.0052787000 3.6097190000     +0.5
Na 3.9625007000 4.0207857000 3.6239840000   +0.5
Na 1.9908627000 1.9908627000 0.9000000000   +0.5
Na 5.9966227000 5.9966227000 0.9000000000   +0.5
Na 1.9908627000 5.9966227000 0.9000000000   +0.5
Na 5.9966227000 1.9908627000 0.9000000000   +0.5
Na 12.0053777000 3.9813367000 3.5937990000   +0.5
Na 3.9800197000 12.0043117000 3.5937860000   +0.5
Na 8.0136997000 12.0048487000 3.5936170000   +0.5
Na 10.0023827000 1.9908627000 0.9000000000   +0.5
Na 10.0023827000 5.9966227000 0.9000000000   +0.5
Na 7.9709737000 3.9638327000 3.6241320000   +0.5
Na 12.0046917000 8.0128557000 3.5936410000   +0.5
Na 1.9908627000 10.0023827000 0.9000000000   +0.5
Na 5.9966227000 10.0023827000 0.9000000000   +0.5
Na 4.0216477000 8.0273097000 3.6265800000   +0.5
Na 8.0279697000 7.9694337000 3.6266130000   +0.5
Na 10.0023827000 10.0023827000 0.9000000000   +0.5
Cl 12.0052827000 3.9937427000 0.9000000000   -0.5
Cl 3.9937427000 12.0052827000 0.9000000000   -0.5
Cl 1.9468097000 6.0122677000 3.7061080000   -0.5
Cl 5.9809487000 1.9451457000 3.7054750000   -0.5
Cl 1.9828567000 1.9890547000 3.7523170000   -0.5
Cl 5.9939367000 5.9947847000 3.4728170000   -0.5
Cl 12.0052827000 12.0052827000 0.9000000000   -0.5
Cl 3.9937427000 3.9937427000 0.9000000000   -0.5
Cl 7.9995027000 3.9937427000 0.9000000000   -0.5
Cl 10.0440477000 5.9812327000 3.7071460000   -0.5
Cl 10.0040177000 1.9832837000 3.7522690000   -0.5
Cl 7.9995027000 12.0052827000 0.9000000000   -0.5
Cl 3.9937427000 7.9995027000 0.9000000000   -0.5
Cl 6.0115977000 10.0439647000 3.7071820000   -0.5
Cl 1.9894737000 10.0100107000 3.7523550000   -0.5
Cl 12.0052827000 7.9995027000 0.9000000000   -0.5
Cl 10.0100677000 10.0037537000 3.7521420000   -0.5
Cl 7.9995027000 7.9995027000 0.9000000000   -0.5
O 7.4493557000 7.4169837000 5.8901480000   -0.4
O 4.5572667000 7.4502027000 5.8901530000   -0.4
O 4.5329257000 4.5573287000 5.8853140000   -0.4
O 7.4108937000 4.5328537000 5.8872280000   -0.4
H 6.4718277000 7.5869107000 5.9272170000   +0.2
H 7.8651107000 8.0303437000 6.5231150000   +0.2
H 4.3895877000 6.4712157000 5.9283520000   +0.2
H 3.9443647000 7.8648667000 6.5214760000   +0.2
H 5.5099247000 4.3874517000 5.9294960000   +0.2
H 4.1114787000 3.9453807000 6.5154680000   +0.2
H 7.5843677000 5.5080397000 5.9275450000   +0.2
H 8.0257527000 4.1104417000 6.5169280000   +0.2
