65

C 4.602152 19.901578 0.076286
C -0.436471 26.626279 -0.029191
C 3.959822 22.265399 -0.125366
C -0.388684 21.283662 0.121265
C 1.683966 19.088796 0.334638
C 0.231852 18.796872 0.625261
N -1.425287 22.341638 -0.084547
C 7.467870 18.786320 -0.062736
C 5.453600 27.393378 -0.003632
C -2.883594 21.961231 -0.122074
C -0.062453 28.015139 0.562602
N 2.437343 16.585642 0.089686
C -2.186230 19.434870 -0.159455
N 3.528779 15.530139 0.120988
C 2.778758 18.048237 0.220265
C 5.460365 22.191023 -0.062643
C 1.508852 23.093565 -0.103800
C 7.344534 20.332928 0.065245
C 2.977933 23.385328 -0.356795
N 2.125775 26.121585 0.409501
C -0.785142 19.838984 0.225233
C 5.868581 20.735847 0.047474
C -0.984801 23.750163 -0.394412
N 0.724344 25.636029 0.098948
C -3.257958 20.500395 -0.267313
C 1.059439 21.658643 0.062403
C 3.475457 20.869445 -0.010085
C 0.445248 24.168247 -0.130757
C 6.405357 23.401937 -0.055745
N 1.000332 16.145156 -0.112894
C 2.043042 20.530167 0.140032
C 1.055724 28.765562 -0.234224
C 4.243214 18.449526 0.298605
H -1.263552 26.227446 0.634609
H -0.644973 26.760445 -1.128678
H -0.080838 17.888571 1.113092
H 6.737799 18.514119 -0.921138
H 7.156266 18.376414 0.976550
H 8.589285 18.606676 -0.316073
H 4.825831 28.381899 -0.227694
H 5.039323 26.876843 0.986220
H 5.345195 26.633917 -0.914857
H 6.602444 27.676800 0.142694
H -3.649565 22.718463 -0.035525
H 0.349566 27.802318 1.590140
H -1.006655 28.636453 0.470050
H -2.423527 18.396021 -0.337506
H 3.166360 14.514433 0.400886
H 4.361210 15.720914 -0.592927
H 7.807940 20.787362 -0.860669
H 7.756747 20.625809 1.074727
H 3.321532 24.327534 -0.745100
H 2.617976 25.550882 1.226839
H 2.659823 26.550031 -0.468213
H -1.697692 24.440211 -0.817532
H -4.290097 20.217870 -0.417573
H 5.750812 24.269034 0.355035
H 6.715183 23.526475 -1.165853
H 7.275658 23.086836 0.644458
H 0.470535 16.694939 -0.921157
H 0.789536 15.092767 0.182418
H 1.103624 28.221548 -1.254727
H 2.027551 28.660906 0.398461
H 0.682091 29.867510 -0.306944
H 4.989201 17.710978 0.534067
