12

Br         3.26630        0.00100        0.00000     -0.1
Cl        -1.57610       -2.69890       -0.00010     -0.1
Cl        -1.57760        2.69800       -0.00020     -0.1
C          1.37620        0.00030        0.00000     -0.05
C          0.67830        1.20810        0.00000     -0.05
C          0.67910       -1.20800       -0.00010     -0.05
C         -0.71590       -1.20820        0.00000     -0.05
C         -0.71660        1.20780        0.00020     -0.05
C         -1.41360       -0.00030        0.00010     -0.05
H          1.22000        2.15150        0.00000     +0.2
H          1.22130       -2.15110       -0.00010     +0.2
H         -2.50150       -0.00060        0.00010     +0.2
